grid_simulations/tests/Result_no_control/output_voltage_09.csv
# Result_no_control/output_voltage_09.csv run at 2000-01-01 09:00:00 EST on 963 nodes
node_name,voltA_mag,voltA_angle,voltB_mag,voltB_angle,voltC_mag,voltC_angle
SourceBus,6668.395609,0.000000,6668.395609,4.188790,6668.395609,2.094395
Bus1,250.138530,-0.541567,250.078726,3.649393,250.649024,1.558008
Bus2,249.903996,-0.541302,249.869258,3.649362,250.547861,1.558102
Bus3,249.879410,-0.541274,249.847298,3.649359,250.537256,1.558112
Bus4,249.856376,-0.541248,249.826726,3.649356,250.527320,1.558122
Bus5,249.836294,-0.541225,249.808789,3.649353,250.518658,1.558130
Bus6,249.804658,-0.541189,249.780532,3.649349,250.505011,1.558143
Bus7,247.651115,-0.538727,247.856359,3.649060,249.575837,1.559017
Bus8,247.554697,-0.538616,247.770179,3.649047,249.534225,1.559056
Bus9,247.474448,-0.538523,247.698449,3.649036,249.499591,1.559089
Bus10,247.404026,-0.538442,247.635501,3.649027,249.469197,1.559117
Bus11,247.351478,-0.538381,247.588530,3.649020,249.446518,1.559139
Bus12,247.302150,-0.538324,247.544435,3.649013,249.425228,1.559159
Bus13,247.271817,-0.538289,247.517321,3.649009,249.412136,1.559171
Bus14,247.196305,-0.538201,247.449820,3.648999,249.379544,1.559202
Bus15,246.584665,-0.537491,246.902999,3.648916,249.115531,1.559452
Bus16,246.584665,-0.537491,246.902999,3.648916,249.115531,1.559452
Bus17,245.843114,-0.536625,246.239888,3.648814,248.795391,1.559756
Bus18,246.584665,-0.537491,246.902999,3.648916,249.115531,1.559452
Bus19,245.792097,-0.536566,246.194262,3.648807,248.773364,1.559777
Bus20,246.584665,-0.537491,246.902999,3.648916,249.115531,1.559452
Bus21,245.734813,-0.536498,246.143029,3.648799,248.748631,1.559801
Bus22,246.584665,-0.537491,246.902999,3.648916,249.115531,1.559452
Bus23,245.641545,-0.536389,246.059612,3.648787,248.708360,1.559839
Bus24,246.584665,-0.537491,246.902999,3.648916,249.115531,1.559452
Bus25,245.471875,-0.536190,245.907856,3.648763,248.635099,1.559909
Bus26,246.584665,-0.537491,246.902999,3.648916,249.115531,1.559452
Bus27,245.212902,-0.535929,245.908649,3.648748,248.637935,1.559919
Bus28,243.647563,-0.533954,243.976312,3.649012,247.616716,1.560416
Bus29,246.584665,-0.537491,246.902999,3.648916,249.115531,1.559452
Bus30,245.177239,-0.535893,245.908758,3.648746,248.638325,1.559920
Bus31,245.178151,-0.535894,245.908756,3.648746,248.638315,1.559920
Bus32,243.162109,-0.533353,243.462107,3.649079,247.345617,1.560552
Bus33,246.584665,-0.537491,246.902999,3.648916,249.115531,1.559452
Bus34,245.095569,-0.535811,245.909009,3.648741,248.639220,1.559923
Bus35,245.176974,-0.535893,245.908759,3.648746,248.638328,1.559920
Bus36,243.164893,-0.533343,243.208881,3.649336,247.346357,1.560537
Bus37,241.612829,-0.531827,242.151743,3.649054,246.502786,1.561402
Bus38,246.584665,-0.537491,246.902999,3.648916,249.115531,1.559452
Bus39,245.175282,-0.535891,245.908764,3.648746,248.638347,1.559920
Bus40,243.164991,-0.533343,243.200036,3.649345,247.346383,1.560537
Bus41,243.165333,-0.533341,243.168945,3.649377,247.346474,1.560535
Bus42,240.538066,-0.530756,241.242438,3.649036,245.918023,1.561995
Bus43,241.612829,-0.531827,242.151743,3.649054,246.502786,1.561402
Bus44,246.584665,-0.537491,246.902999,3.648916,249.115531,1.559452
Bus45,245.173112,-0.535889,245.908771,3.648746,248.638370,1.559920
Bus46,243.165035,-0.533342,243.196049,3.649349,247.346394,1.560536
Bus47,243.166389,-0.533338,243.072855,3.649474,247.346755,1.560529
Bus48,239.726099,-0.529941,240.555315,3.649022,245.476200,1.562445
Bus49,241.612829,-0.531827,242.151743,3.649054,246.502786,1.561402
Bus50,246.584665,-0.537491,246.902999,3.648916,249.115531,1.559452
Bus51,245.167827,-0.535884,245.908787,3.648746,248.638428,1.559921
Bus52,243.165081,-0.533342,243.191825,3.649353,247.346407,1.560536
Bus53,239.609043,-0.529823,240.456246,3.649020,245.412502,1.562510
Bus54,239.726099,-0.529941,240.555315,3.649022,245.476200,1.562445
Bus55,241.612829,-0.531827,242.151743,3.649054,246.502786,1.561402
Bus56,246.584665,-0.537491,246.902999,3.648916,249.115531,1.559452
Bus57,245.163302,-0.535879,245.908801,3.648745,248.638478,1.559921
Bus58,243.165125,-0.533342,243.187801,3.649358,247.346419,1.560536
Bus59,239.078851,-0.529287,240.007488,3.649011,245.123980,1.562805
Bus60,239.726099,-0.529941,240.555315,3.649022,245.476200,1.562445
Bus61,241.612829,-0.531827,242.151743,3.649054,246.502786,1.561402
Bus62,246.584665,-0.537491,246.902999,3.648916,249.115531,1.559452
Bus63,245.141612,-0.535857,245.908868,3.648744,248.638715,1.559922
Bus64,243.165152,-0.533342,243.185391,3.649360,247.346426,1.560536
Bus65,238.988410,-0.529194,239.914487,3.649041,245.059571,1.562843
Bus66,238.706851,-0.528903,240.008664,3.648989,245.128039,1.562820
Bus67,239.726099,-0.529941,240.555315,3.649022,245.476200,1.562445
Bus68,241.612829,-0.531827,242.151743,3.649054,246.502786,1.561402
Bus69,246.584665,-0.537491,246.902999,3.648916,249.115531,1.559452
Bus70,245.064945,-0.535780,245.909102,3.648740,248.639555,1.559925
Bus71,243.165204,-0.533342,243.180663,3.649365,247.346439,1.560535
Bus72,237.920045,-0.528093,238.815727,3.649396,244.298629,1.563299
Bus73,238.615941,-0.528809,240.008951,3.648984,245.129031,1.562823
Bus74,238.615941,-0.528809,240.008951,3.648984,245.129031,1.562823
Bus75,239.726099,-0.529941,240.555315,3.649022,245.476200,1.562445
Bus76,241.612829,-0.531827,242.151743,3.649054,246.502786,1.561402
Bus77,246.584665,-0.537491,246.902999,3.648916,249.115531,1.559452
Bus78,243.165467,-0.533341,243.156700,3.649389,247.346509,1.560534
Bus79,237.547709,-0.527707,238.432734,3.649521,244.033395,1.563459
Bus80,239.726099,-0.529941,240.555315,3.649022,245.476200,1.562445
Bus81,241.612829,-0.531827,242.151743,3.649054,246.502786,1.561402
Bus82,246.584665,-0.537491,246.902999,3.648916,249.115531,1.559452
Bus83,243.166460,-0.533337,243.066407,3.649481,247.346773,1.560529
Bus84,237.466457,-0.527622,238.349153,3.649548,243.975514,1.563494
Bus85,239.726099,-0.529941,240.555315,3.649022,245.476200,1.562445
Bus86,241.612829,-0.531827,242.151743,3.649054,246.502786,1.561402
Bus87,246.584665,-0.537491,246.902999,3.648916,249.115531,1.559452
Bus88,237.301698,-0.527451,238.179665,3.649604,243.858140,1.563564
Bus89,239.726099,-0.529941,240.555315,3.649022,245.476200,1.562445
Bus90,241.612829,-0.531827,242.151743,3.649054,246.502786,1.561402
Bus91,246.584665,-0.537491,246.902999,3.648916,249.115531,1.559452
Bus92,237.146328,-0.527289,238.019830,3.649656,243.747451,1.563631
Bus93,241.612829,-0.531827,242.151743,3.649054,246.502786,1.561402
Bus94,246.584665,-0.537491,246.902999,3.648916,249.115531,1.559452
Bus95,237.056024,-0.527195,237.926928,3.649686,243.683116,1.563670
Bus96,241.612829,-0.531827,242.151743,3.649054,246.502786,1.561402
Bus97,246.584665,-0.537491,246.902999,3.648916,249.115531,1.559452
Bus98,236.996386,-0.527133,237.865573,3.649706,243.640627,1.563696
Bus99,241.612829,-0.531827,242.151743,3.649054,246.502786,1.561402
Bus100,246.584665,-0.537491,246.902999,3.648916,249.115531,1.559452
Bus101,236.914045,-0.527047,237.780860,3.649734,243.581962,1.563731
Bus102,241.612829,-0.531827,242.151743,3.649054,246.502786,1.561402
Bus103,246.584665,-0.537491,246.902999,3.648916,249.115531,1.559452
Bus104,236.914180,-0.527047,237.778489,3.649734,243.580573,1.563726
Bus105,236.858658,-0.526996,237.736758,3.649734,243.550257,1.563767
Bus106,241.612829,-0.531827,242.151743,3.649054,246.502786,1.561402
Bus107,236.914344,-0.527047,237.775621,3.649733,243.578891,1.563721
Bus108,236.827252,-0.526967,237.711750,3.649734,243.532278,1.563787
Bus109,241.612829,-0.531827,242.151743,3.649054,246.502786,1.561402
Bus110,236.914534,-0.527047,237.772296,3.649733,243.576942,1.563714
Bus111,235.588192,-0.525823,236.724995,3.649728,242.822971,1.564590
Bus112,241.612829,-0.531827,242.151743,3.649054,246.502786,1.561402
Bus113,236.914823,-0.527047,237.767226,3.649732,243.573971,1.563704
Bus114,235.464083,-0.525708,236.626144,3.649727,242.751923,1.564671
Bus115,241.612829,-0.531827,242.151743,3.649054,246.502786,1.561402
Bus116,236.915195,-0.527047,237.760709,3.649731,243.570151,1.563691
Bus117,235.463360,-0.525713,236.620990,3.649727,242.746182,1.564659
Bus118,235.086207,-0.525486,236.366867,3.649513,242.586285,1.564845
Bus119,241.612829,-0.531827,242.151743,3.649054,246.502786,1.561402
Bus120,236.915462,-0.527047,237.756030,3.649730,243.567408,1.563682
Bus121,235.463360,-0.525713,236.620990,3.649727,242.746182,1.564659
Bus122,235.463007,-0.525715,236.618481,3.649727,242.743387,1.564654
Bus123,234.404787,-0.525084,235.899324,3.649126,242.287598,1.565160
Bus124,241.612829,-0.531827,242.151743,3.649054,246.502786,1.561402
Bus125,236.915840,-0.527047,237.749419,3.649729,243.563533,1.563668
Bus126,235.463360,-0.525713,236.620990,3.649727,242.746182,1.564659
Bus127,235.461353,-0.525727,236.606695,3.649727,242.730257,1.564628
Bus128,234.098365,-0.524903,235.689081,3.648952,242.153287,1.565302
Bus129,241.612829,-0.531827,242.151743,3.649054,246.502786,1.561402
Bus130,236.916248,-0.527048,237.742266,3.649728,243.559341,1.563654
Bus131,235.463360,-0.525713,236.620990,3.649727,242.746182,1.564659
Bus132,235.374014,-0.525636,236.606974,3.649722,242.731208,1.564631
Bus133,235.482562,-0.525752,236.570424,3.649773,242.685040,1.564522
Bus134,234.007198,-0.524848,235.626530,3.648900,242.113326,1.565344
Bus135,241.612829,-0.531827,242.151743,3.649054,246.502786,1.561402
Bus136,236.916633,-0.527048,237.735521,3.649727,243.555387,1.563641
Bus137,235.463360,-0.525713,236.620990,3.649727,242.746182,1.564659
Bus138,235.366493,-0.525628,236.606998,3.649722,242.731290,1.564632
Bus139,235.498340,-0.525770,236.543441,3.649806,242.651402,1.564443
Bus140,233.904289,-0.524787,235.555922,3.648841,242.068219,1.565392
Bus141,241.612829,-0.531827,242.151743,3.649054,246.502786,1.561402
Bus142,236.917267,-0.527048,237.724430,3.649725,243.548886,1.563619
Bus143,235.463360,-0.525713,236.620990,3.649727,242.746182,1.564659
Bus144,235.359113,-0.525620,236.607021,3.649721,242.731371,1.564632
Bus145,235.508906,-0.525783,236.525371,3.649829,242.628877,1.564390
Bus146,233.807505,-0.524730,235.489518,3.648786,242.025798,1.565437
Bus147,241.612829,-0.531827,242.151743,3.649054,246.502786,1.561402
Bus148,236.920277,-0.527050,237.671695,3.649717,243.517978,1.563513
Bus149,235.463360,-0.525713,236.620990,3.649727,242.746182,1.564659
Bus150,235.353154,-0.525614,236.607041,3.649721,242.731436,1.564632
Bus151,235.511446,-0.525827,236.533019,3.649861,242.603827,1.564381
Bus152,235.511492,-0.525773,236.291531,3.650073,242.629551,1.564376
Bus153,233.694578,-0.524663,235.412037,3.648721,241.976300,1.565489
Bus154,241.612829,-0.531827,242.151743,3.649054,246.502786,1.561402
Bus155,236.920933,-0.527050,237.660207,3.649716,243.511246,1.563490
Bus156,235.463360,-0.525713,236.620990,3.649727,242.746182,1.564659
Bus157,235.344210,-0.525604,236.607069,3.649720,242.731533,1.564633
Bus158,235.518185,-0.525944,236.553303,3.649945,242.537393,1.564358
Bus159,235.511649,-0.525772,236.277298,3.650088,242.629592,1.564375
Bus160,233.662084,-0.524643,235.389743,3.648703,241.962058,1.565505
Bus161,241.612829,-0.531827,242.151743,3.649054,246.502786,1.561402
Bus162,236.923873,-0.527039,237.394206,3.649992,243.512015,1.563475
Bus163,236.917525,-0.527075,237.635661,3.649716,243.483899,1.563436
Bus164,235.463360,-0.525713,236.620990,3.649727,242.746182,1.564659
Bus165,235.333427,-0.525593,236.607104,3.649720,242.731651,1.564633
Bus166,235.520527,-0.525985,236.560349,3.649974,242.514316,1.564350
Bus167,235.511793,-0.525772,236.264296,3.650101,242.629630,1.564374
Bus168,233.477483,-0.524533,235.263086,3.648597,241.881145,1.565590
Bus169,241.612829,-0.531827,242.151743,3.649054,246.502786,1.561402
Bus170,236.924428,-0.527037,237.343956,3.650044,243.512160,1.563472
Bus171,236.913001,-0.527108,237.603073,3.649716,243.447596,1.563364
Bus172,235.463360,-0.525713,236.620990,3.649727,242.746182,1.564659
Bus173,235.325280,-0.525585,236.607130,3.649719,242.731739,1.564633
Bus174,235.520527,-0.525985,236.560349,3.649974,242.514316,1.564350
Bus175,235.521078,-0.525996,236.562375,3.649982,242.327512,1.564540
Bus176,235.511852,-0.525772,236.258895,3.650107,242.629645,1.564374
Bus177,233.373220,-0.524471,235.191551,3.648537,241.835446,1.565639
Bus178,236.925573,-0.527033,237.240281,3.650152,243.512460,1.563466
Bus179,236.911400,-0.527099,237.595060,3.649705,243.449743,1.563355
Bus180,236.913319,-0.527114,237.604237,3.649720,243.340316,1.563472
Bus181,235.463360,-0.525713,236.620990,3.649727,242.746182,1.564659
Bus182,235.315854,-0.525575,236.607160,3.649719,242.731842,1.564634
Bus183,235.520527,-0.525985,236.560349,3.649974,242.514316,1.564350
Bus184,235.521138,-0.525997,236.562594,3.649983,242.307337,1.564560
Bus185,235.511981,-0.525771,236.247253,3.650119,242.629679,1.564373
Bus186,233.295824,-0.524425,235.138449,3.648493,241.801522,1.565675
Bus187,236.905098,-0.527063,237.563524,3.649664,243.458191,1.563318
Bus188,236.914631,-0.527141,237.609055,3.649739,242.896338,1.563923
Bus189,235.463360,-0.525713,236.620990,3.649727,242.746182,1.564659
Bus190,235.306990,-0.525565,236.607188,3.649718,242.731939,1.564634
Bus191,235.520527,-0.525985,236.560349,3.649974,242.514316,1.564350
Bus192,235.520527,-0.525985,236.560349,3.649974,242.514316,1.564350
Bus193,235.521196,-0.525999,236.562806,3.649983,242.287823,1.564580
Bus194,235.512309,-0.525770,236.217600,3.650150,242.629764,1.564372
Bus195,233.226241,-0.524383,235.090709,3.648453,241.771024,1.565707
Bus196,236.893846,-0.527000,237.507218,3.649591,243.473277,1.563253
Bus197,236.914759,-0.527144,237.609526,3.649740,242.852957,1.563967
Bus198,236.914705,-0.527143,237.609327,3.649740,242.871262,1.563949
Bus199,235.463360,-0.525713,236.620990,3.649727,242.746182,1.564659
Bus200,235.297454,-0.525555,236.607219,3.649717,242.732042,1.564634
...
SourceBus_1,6649.883401,-0.004083,6651.880152,4.185531,6655.626854,2.090464
LOAD1,245.095569,-0.535811,245.909009,3.648741,248.639220,1.559923
LOAD2,243.166389,-0.533338,243.072855,3.649474,247.346755,1.560529
LOAD3,245.064945,-0.535780,245.909102,3.648740,248.639555,1.559925
LOAD4,238.615941,-0.528809,240.008951,3.648984,245.129031,1.562823
LOAD5,238.615941,-0.528809,240.008951,3.648984,245.129031,1.562823
LOAD6,243.166460,-0.533337,243.066407,3.649481,247.346773,1.560529
LOAD7,236.925573,-0.527033,237.240281,3.650152,243.512460,1.563466
LOAD8,236.915084,-0.527150,237.610716,3.649745,242.743280,1.564079
LOAD9,236.474336,-0.526563,237.508554,3.649566,243.477847,1.563270
LOAD10,236.918474,-0.526905,236.715426,3.650341,243.480699,1.563119
LOAD11,236.918474,-0.526905,236.715426,3.650341,243.480699,1.563119
LOAD12,236.915170,-0.527152,237.611034,3.649746,242.713935,1.564109
LOAD13,235.516277,-0.525755,235.858809,3.650525,242.630799,1.564350
LOAD14,235.133439,-0.525383,236.607743,3.649708,242.733829,1.564641
LOAD15,235.515752,-0.525757,235.906279,3.650476,242.630662,1.564353
LOAD16,235.522359,-0.526023,236.567078,3.650000,241.893850,1.564982
LOAD17,235.522110,-0.526017,236.566164,3.649996,241.978122,1.564896
LOAD18,230.286175,-0.521115,233.091005,3.646148,240.928606,1.567268
LOAD19,232.172670,-0.523777,234.337963,3.647916,240.942827,1.566506
LOAD20,230.447908,-0.521727,233.598140,3.646660,241.196335,1.566817
LOAD21,232.214620,-0.523622,234.628344,3.648045,241.478613,1.566035
LOAD22,230.370264,-0.521644,233.598396,3.646655,241.197179,1.566820
LOAD23,229.877562,-0.520158,232.369881,3.646032,241.335543,1.566965
LOAD24,231.432672,-0.523366,233.609927,3.647857,240.262401,1.566770
LOAD25,226.010869,-0.513610,230.861783,3.641399,242.119716,1.568363
LOAD26,230.103863,-0.521438,231.445093,3.647893,239.997711,1.565554
LOAD27,231.152706,-0.523182,233.229767,3.647970,239.857740,1.566827
LOAD28,231.152984,-0.523188,233.230789,3.647975,239.763171,1.566924
LOAD29,225.741851,-0.512479,230.189265,3.641497,242.116195,1.567821
LOAD30,226.037765,-0.513640,230.861689,3.641401,242.119425,1.568362
LOAD31,225.748483,-0.512486,230.189241,3.641497,242.116124,1.567821
LOAD32,229.750609,-0.521135,231.369591,3.647461,239.534937,1.565942
LOAD33,226.707578,-0.512862,229.514849,3.642776,241.522651,1.567004
LOAD34,226.946880,-0.515289,231.376524,3.642213,241.966903,1.568214
LOAD35,226.765173,-0.512596,228.928863,3.643370,241.869447,1.566349
LOAD36,226.661186,-0.512722,228.824084,3.643295,241.962169,1.566738
LOAD37,226.661365,-0.512721,228.808143,3.643312,241.962213,1.566737
LOAD38,229.318448,-0.520579,230.671345,3.647424,239.762352,1.565661
LOAD39,228.983358,-0.520301,230.584598,3.647086,239.019036,1.566139
LOAD40,228.753978,-0.519624,229.799077,3.647282,239.518961,1.565290
LOAD41,228.207764,-0.517783,228.129775,3.648130,239.252876,1.564415
LOAD42,228.983417,-0.520303,230.584817,3.647087,238.998773,1.566160
LOAD43,227.867230,-0.517592,228.489000,3.647623,238.289758,1.565334
LOAD44,229.977765,-0.521282,231.181639,3.647967,239.943446,1.565531
LOAD45,228.207496,-0.517784,228.153857,3.648103,239.252807,1.564417
LOAD46,227.870681,-0.519066,230.913047,3.646870,239.747003,1.565804
LOAD47,227.867135,-0.517590,228.488641,3.647621,238.322948,1.565299
LOAD48,227.926649,-0.519126,230.912861,3.646873,239.746396,1.565802
LOAD49,227.816003,-0.519006,230.913230,3.646866,239.747596,1.565806
LOAD50,227.590168,-0.515375,226.671262,3.648252,239.269117,1.563386
LOAD51,227.645060,-0.517988,229.645685,3.646644,239.487384,1.565260
LOAD52,226.735904,-0.515301,227.886774,3.646975,239.222029,1.564294
LOAD53,227.590168,-0.515375,226.624569,3.648305,239.269117,1.563386
LOAD54,227.493002,-0.517823,229.646194,3.646635,239.489030,1.565266
LOAD55,226.720784,-0.515256,227.889212,3.646930,239.229809,1.564324
